     3         
# Geometry (Ang) in center of mass frame, with masses at the end of lines
  O       0.000000000000000        0.000000000000000       -0.065835378087835     29156.9600
  H       0.000000000000000        0.760028000000000        0.522428621912165      1837.1500
  H       0.000000000000000       -0.760028000000000        0.522428621912165      1837.1500